samples/ieee5.cdf
CASE5   5-BUS SIMPLE TEST SYSTEM                                   100.00   /Test Case /00/ 
BUS DATA FOLLOWS
    1 BUS1        1  230.00    1  1  0 1.06000   0.0000      0.00      0.00      0.00      0.00   1.060   0.940    150.000     80.000   200.000   -150.000
    2 BUS2        1  230.00    1  1  2 1.04500  -5.0000     80.000     30.000      0.00      0.00   1.060   0.940    100.000     60.000   150.000   -100.000
    3 BUS3        1  230.00    1  1  2 1.01000 -10.0000    120.000     50.000      0.00      0.00   1.060   0.940      0.000      0.000      0.000      0.000
    4 BUS4        1  230.00    1  1  0 1.00000 -15.0000     60.000     20.000      0.00      0.00   1.060   0.940      0.000      0.000      0.000      0.000
    5 BUS5        1  230.00    1  1  0 1.00000 -20.0000     40.000     15.000      0.00      0.00   1.060   0.940      0.000      0.000      0.000      0.000
-999
BRANCH DATA FOLLOWS
    1    2  1  1   .02000    .06000    .05000     0.0   0.0   0.0     0.0    0.0    0.0
    1    5  1  1   .05000    .18000    .04000     0.0   0.0   0.0     0.0    0.0    0.0
    2    3  1  1   .04000    .15000    .03500     0.0   0.0   0.0     0.0    0.0    0.0
    2    4  1  1   .06000    .16000    .03000     0.0   0.0   0.0    0.985  0.0    0.0
    2    5  1  1   .05500    .16500    .02800     0.0   0.0   0.0     0.0    0.0    0.0
    3    4  1  1   .07000    .17000    .01200     0.0   0.0   0.0     0.0    0.0    0.0
    4    5  1  1   .01500    .04000    0.0       0.0   0.0   0.0     0.0    0.0    0.0
-999
